
  Mrv2304 09092301262D          

 30 33  0  0  0  0            999 V2000
   -0.1712   -0.6979    0.0000 C   0  0  0  0  0  0  0  0  0  0  0  0
    0.6538   -0.6979    0.0000 C   0  0  0  0  0  0  0  0  0  0  0  0
    1.1387   -0.0305    0.0000 N   0  0  0  0  0  0  0  0  0  0  0  0
    1.9233   -0.2854    0.0000 C   0  0  0  0  0  0  0  0  0  0  0  0
    2.6378    0.1271    0.0000 C   0  0  0  0  0  0  0  0  0  0  0  0
    3.3523   -0.2854    0.0000 C   0  0  0  0  0  0  0  0  0  0  0  0
    3.3523   -1.1104    0.0000 C   0  0  0  0  0  0  0  0  0  0  0  0
    4.0668   -1.5229    0.0000 F   0  0  0  0  0  0  0  0  0  0  0  0
    2.6378   -1.5229    0.0000 C   0  0  0  0  0  0  0  0  0  0  0  0
    1.9233   -1.1104    0.0000 C   0  0  0  0  0  0  0  0  0  0  0  0
    1.1387   -1.3654    0.0000 N   0  0  0  0  0  0  0  0  0  0  0  0
    0.8838   -2.1500    0.0000 C   0  0  0  0  0  0  0  0  0  0  0  0
    1.4358   -2.7631    0.0000 N   0  0  0  0  0  0  0  0  0  0  0  0
    1.1809   -3.5477    0.0000 C   0  0  0  0  0  0  0  0  0  0  0  0
    1.7329   -4.1608    0.0000 N   0  0  0  0  0  0  0  0  0  0  0  0
    0.3739   -3.7192    0.0000 C   0  0  0  0  0  0  0  0  0  0  0  0
    0.1190   -4.5039    0.0000 F   0  0  0  0  0  0  0  0  0  0  0  0
   -0.1781   -3.1062    0.0000 C   0  0  0  0  0  0  0  0  0  0  0  0
   -0.9851   -3.2777    0.0000 N   0  0  0  0  0  0  0  0  0  0  0  0
   -1.5371   -2.6646    0.0000 C   0  0  0  0  0  0  0  0  0  0  0  0
   -2.3441   -2.8361    0.0000 C   0  0  0  0  0  0  0  0  0  0  0  0
   -2.8961   -2.2230    0.0000 C   0  0  0  0  0  0  0  0  0  0  0  0
   -2.6412   -1.4384    0.0000 C   0  0  0  0  0  0  0  0  0  0  0  0
   -1.8342   -1.2669    0.0000 C   0  0  0  0  0  0  0  0  0  0  0  0
   -1.2822   -1.8800    0.0000 C   0  0  0  0  0  0  0  0  0  0  0  0
   -3.1932   -0.8253    0.0000 C   0  0  0  0  0  0  0  0  0  0  0  0
   -3.7453   -0.2122    0.0000 F   0  0  0  0  0  0  0  0  0  0  0  0
   -2.5801   -0.2733    0.0000 F   0  0  0  0  0  0  0  0  0  0  0  0
   -3.8063   -1.3773    0.0000 F   0  0  0  0  0  0  0  0  0  0  0  0
    0.0768   -2.3215    0.0000 N   0  0  0  0  0  0  0  0  0  0  0  0
  1  2  1  0  0  0  0
  2  3  2  0  0  0  0
  3  4  1  0  0  0  0
  4  5  2  0  0  0  0
  5  6  1  0  0  0  0
  6  7  2  0  0  0  0
  7  8  1  0  0  0  0
  7  9  1  0  0  0  0
  9 10  2  0  0  0  0
  4 10  1  0  0  0  0
 10 11  1  0  0  0  0
  2 11  1  0  0  0  0
 11 12  1  0  0  0  0
 12 13  2  0  0  0  0
 13 14  1  0  0  0  0
 14 15  1  0  0  0  0
 14 16  2  0  0  0  0
 16 17  1  0  0  0  0
 16 18  1  0  0  0  0
 18 19  1  0  0  0  0
 19 20  1  0  0  0  0
 20 21  2  0  0  0  0
 21 22  1  0  0  0  0
 22 23  2  0  0  0  0
 23 24  1  0  0  0  0
 24 25  2  0  0  0  0
 20 25  1  0  0  0  0
 23 26  1  0  0  0  0
 26 27  1  0  0  0  0
 26 28  1  0  0  0  0
 26 29  1  0  0  0  0
 18 30  2  0  0  0  0
 12 30  1  0  0  0  0
M  END
> <DATABASE_ID>
DB18080

> <DATABASE_NAME>
drugbank

> <SMILES>
CC1=NC2=CC=C(F)C=C2N1C1=NC(N)=C(F)C(NC2=CC=C(C=C2)C(F)(F)F)=N1

> <INCHI_IDENTIFIER>
InChI=1S/C19H13F5N6/c1-9-26-13-7-4-11(20)8-14(13)30(9)18-28-16(25)15(21)17(29-18)27-12-5-2-10(3-6-12)19(22,23)24/h2-8H,1H3,(H3,25,27,28,29)

> <INCHI_KEY>
TWLWOOPCEXYVBE-UHFFFAOYSA-N

> <FORMULA>
C19H13F5N6

> <MOLECULAR_WEIGHT>
420.347

> <EXACT_MASS>
420.112185258

> <JCHEM_ACCEPTOR_COUNT>
5

> <JCHEM_ATOM_COUNT>
43

> <JCHEM_AVERAGE_NEUTRAL_MICROSPECIES_CHARGE>
1.996049865658326

> <JCHEM_AVERAGE_POLARIZABILITY>
36.567964397269996

> <JCHEM_BIOAVAILABILITY>
1

> <JCHEM_DONOR_COUNT>
2

> <JCHEM_FORMAL_CHARGE>
0

> <JCHEM_GHOSE_FILTER>
1

> <JCHEM_IUPAC>
5-fluoro-2-(6-fluoro-2-methyl-1H-1,3-benzodiazol-1-yl)-N4-[4-(trifluoromethyl)phenyl]pyrimidine-4,6-diamine

> <JCHEM_LOGP>
4.982646141666667

> <JCHEM_MDDR_LIKE_RULE>
0

> <JCHEM_NEUTRAL_CHARGE>
0

> <JCHEM_NUMBER_OF_RINGS>
4

> <JCHEM_PHYSIOLOGICAL_CHARGE>
0

> <JCHEM_PKA>
18.451571847885443

> <JCHEM_PKA_STRONGEST_ACIDIC>
14.887536007820461

> <JCHEM_PKA_STRONGEST_BASIC>
5.127894136836469

> <JCHEM_POLAR_SURFACE_AREA>
81.65

> <JCHEM_REFRACTIVITY>
111.23320000000002

> <JCHEM_ROTATABLE_BOND_COUNT>
4

> <JCHEM_RULE_OF_FIVE>
1

> <JCHEM_TRADITIONAL_IUPAC>
5-fluoro-2-(6-fluoro-2-methyl-1,3-benzodiazol-1-yl)-N4-[4-(trifluoromethyl)phenyl]pyrimidine-4,6-diamine

> <JCHEM_VEBER_RULE>
0

> <DRUGBANK_ID>
DB18080

> <DRUG_GROUPS>
investigational

> <GENERIC_NAME>
Unesbulin

> <SYNONYMS>
4,6-pyrimidinediamine, 5-fluoro-2-(6-fluoro-2-methyl-1h-benzimidazol-1-yl)-n4-(4-(trifluoromethyl)phenyl)-; 5-fluoro-2-(6-fluoro-2-methyl-1h-benzimidazol-1-yl)-n4-(4-(trifluoromethyl)phenyl)-4,6-pyrimidinediamine; 5-fluoro-2-(6-fluoro-2-methyl-1h-benzo(d)imidazole-1-yl)-n4-(4-(trifluoromethyl)phenyl)pyrimidine-4,6-diamine; 5-fluoro-2-(6-fluoro-2-methyl-1H-benzo[d]imidazole-1-yl)-N4-(4-(trifluoromethyl)phenyl)pyrimidine-4,6-diamine; Bmi1 inhibitor ptc596; Polycomb ring finger oncogene inhibitor ptc596

$$$$
